case33radial.m
function [baseMVA,bus,branch]=case33radial
%% Formate for data definition is adopted from MATPOWER
baseMVA=100;
%% Bus Data
%	Bus_I	Pd	Qd	Bs	Type	Vm	Va	basekV	Vmax	Vmin
bus=[...
    1	0	0	0	3	1	0	12.66	1.05	0.95
	2	100	60	0	3	1	0	12.66	1.05	0.95
	3	90	40	0	3	1	0	12.66	1.05	0.95
	4	120	80	0	3	1	0	12.66	1.05	0.95
	5	60	30	0	3	1	0	12.66	1.05	0.95
	6	60	20	0	3	1	0	12.66	1.05	0.95
	7	200	100	0	3	1	0	12.66	1.05	0.95
	8	200	100	0	3	1	0	12.66	1.05	0.95
	9	60	20	0	3	1	0	12.66	1.05	0.95
	10	60	20	0	3	1	0	12.66	1.05	0.95
	11	45	30	0	3	1	0	12.66	1.05	0.95
	12	60	35	0	3	1	0	12.66	1.05	0.95
	13	60	35	0	3	1	0	12.66	1.05	0.95
	14	120	80	0	3	1	0	12.66	1.05	0.95
	15	60	10	0	3	1	0	12.66	1.05	0.95
	16	60	20	0	3	1	0	12.66	1.05	0.95
	17	60	20	0	3	1	0	12.66	1.05	0.95
	18	90	40	0	3	1	0	12.66	1.05	0.95
	19	90	40	0	3	1	0	12.66	1.05	0.95
	20	90	40	0	3	1	0	12.66	1.05	0.95
	21	90	40	0	3	1	0	12.66	1.05	0.95
	22	90	40	0	3	1	0	12.66	1.05	0.95
	23	90	50	0	3	1	0	12.66	1.05	0.95
	24	420	200	0	3	1	0	12.66	1.05	0.95
	25	420	200	0	3	1	0	12.66	1.05	0.95
	26	60	25	0	3	1	0	12.66	1.05	0.95
	27	60	25	0	3	1	0	12.66	1.05	0.95
	28	60	20	0	3	1	0	12.66	1.05	0.95
	29	120	70	0	3	1	0	12.66	1.05	0.95
	30	200	600	0	3	1	0	12.66	1.05	0.95
	31	150	70	0	3	1	0	12.66	1.05	0.95
	32	210	100	0	3	1	0	12.66	1.05	0.95
	33	60	40	0	3	1	0	12.66	1.05	0.95 ];

%% Any Changes in Bus Data Such as Load Type, P, and Q can be edited here seperately
% E.g., In base case all load are of PQ Type (3). But if we wish that from
% all load are of Z-type (1) then simply write
% bus(2:33,5)=2;
% For all loads of I-type (2) write
% bus(2:3,5)=3;
% For all loads of ZIP-type (4) write
% bus(2:33,5)=4;
% Apart from this we can also define different type of loads at each bus
% using similar steps

%% Line Data
%   f	t	r(ohm)	x(ohm)	Status	Ratio	RateA
branch=[...
    1	2	0.0922	0.0477	1	0	9990
    2	3	0.493	0.2511	1	0	9990
    3	4	0.366	0.1864	1	0	9990
    4	5	0.3811	0.1941	1	0	9990
    5	6	0.819	0.707	1	0	9990
    6	7	0.1872	0.6188	1	0	9990
    7	8	1.7114	1.2351	1	0	9990
    8	9	1.03	0.74	1	0	9990
    9	10	1.04	0.74	1	0	9990
    10	11	0.1966	0.065	1	0	9990
    11	12	0.3744	0.1238	1	0	9990
    12	13	1.468	1.155	1	0	9990
    13	14	0.5416	0.7129	1	0	9990
    14	15	0.591	0.526	1	0	9990
    15	16	0.7463	0.545	1	0	9990
    16	17	1.289	1.721	1	0	9990
    17	18	0.732	0.574	1	0	9990
    2	19	0.164	0.1565	1	0	9990
    19	20	1.5042	1.3554	1	0	9990
    20	21	0.4095	0.4784	1	0	9990
    21	22	0.7089	0.9373	1	0	9990
    3	23	0.4512	0.3083	1	0	9990
    23	24	0.898	0.7091	1	0	9990
    24	25	0.896	0.7011	1	0	9990
    6	26	0.203	0.1034	1	0	9990
    26	27	0.2842	0.1447	1	0	9990
    27	28	1.059	0.9337	1	0	9990
    28	29	0.8042	0.7006	1	0	9990
    29	30	0.5075	0.2585	1	0	9990
    30	31	0.9744	0.963	1	0	9990
    31	32	0.3105	0.3619	1	0	9990
    32	33	0.341	0.5302	1	0	9990 ];


				
